<edges>
    <!-- Main road (east-west) -->
    <edge id="e1" from="n1" to="n2" numLanes="2" speed="13.9"/>
    <edge id="e2" from="n2" to="n3" numLanes="2" speed="13.9"/>
    <edge id="e6" from="n3" to="n2" numLanes="2" speed="13.9"/>
    <edge id="e7" from="n2" to="n1" numLanes="2" speed="13.9"/>

    <!-- Side roads (north-south) -->
    <edge id="e3" from="n4" to="n2" numLanes="1" speed="10"/>
    <edge id="e4" from="n2" to="n5" numLanes="1" speed="10"/>
    <edge id="e5" from="n5" to="n2" numLanes="1" speed="10"/>
    <edge id="e8" from="n2" to="n4" numLanes="1" speed="10"/>
</edges>